GMJ
  CCTOOLS-0919241041

 49 51  0  0  0  0  0  0  0  0999 V2000
   -1.9700   -0.0620   -0.2640 C   0  0  0  0  0
   -1.0680   -1.2800   -0.4760 C   0  0  0  0  0
   -6.3510   -0.7390   -0.1730 C   0  0  0  0  0
   -7.7200   -0.8870   -0.1320 C   0  0  0  0  0
   -8.5340    0.2190    0.0650 C   0  0  0  0  0
   -7.9770    1.4790    0.2230 C   0  0  0  0  0
   -6.6090    1.6410    0.1840 C   0  0  0  0  0
   -5.7820    0.5290   -0.0100 C   0  0  0  0  0
   -4.3220    0.6940   -0.0520 C   0  0  0  0  0
   -3.4340   -0.5060   -0.2610 C   0  0  0  0  0
    1.2180   -1.9460   -0.9130 C   0  0  0  0  0
    2.6510   -1.4270   -1.0440 C   0  0  0  0  0
    3.1160   -0.8790    0.3080 C   0  0  0  0  0
    2.1550    0.2240    0.7600 C   0  0  0  0  0
    0.7360   -0.3430    0.8390 C   0  0  0  0  0
    4.5060   -0.3130    0.1710 C   0  0  0  0  0
    5.3680   -0.3300    1.2510 C   0  0  0  0  0
    6.6430    0.1890    1.1270 C   0  0  0  0  0
    7.0560    0.7260   -0.0800 C   0  0  0  0  0
    6.1930    0.7430   -1.1610 C   0  0  0  0  0
    4.9200    0.2180   -1.0360 C   0  0  0  0  0
   -9.8760    0.0670    0.1040 F   0  0  0  0  0
    0.3380   -0.8540   -0.4790 N   0  0  0  0  0
   -3.8320    1.7950    0.0810 O   0  0  0  0  0
    3.1220   -1.9320    1.2740 O   0  0  0  0  0
    8.6570    1.3780   -0.2370 CL  0  0  0  0  0
   -1.7300    0.4060    0.6910 H   0  0  0  0  0
   -1.8090    0.6540   -1.0700 H   0  0  0  0  0
   -1.2290   -1.9960    0.3300 H   0  0  0  0  0
   -1.3080   -1.7480   -1.4310 H   0  0  0  0  0
   -5.7180   -1.6010   -0.3260 H   0  0  0  0  0
   -8.1600   -1.8650   -0.2530 H   0  0  0  0  0
   -8.6160    2.3360    0.3750 H   0  0  0  0  0
   -6.1770    2.6230    0.3060 H   0  0  0  0  0
   -3.6740   -0.9740   -1.2160 H   0  0  0  0  0
   -3.5950   -1.2220    0.5450 H   0  0  0  0  0
    0.8790   -2.3250   -1.8780 H   0  0  0  0  0
    1.1890   -2.7500   -0.1780 H   0  0  0  0  0
    3.3070   -2.2420   -1.3510 H   0  0  0  0  0
    2.6840   -0.6330   -1.7900 H   0  0  0  0  0
    2.4560    0.5890    1.7420 H   0  0  0  0  0
    2.1800    1.0450    0.0430 H   0  0  0  0  0
    0.7090   -1.1540    1.5660 H   0  0  0  0  0
    0.0470    0.4440    1.1460 H   0  0  0  0  0
    5.0460   -0.7490    2.1930 H   0  0  0  0  0
    7.3170    0.1760    1.9710 H   0  0  0  0  0
    6.5150    1.1610   -2.1030 H   0  0  0  0  0
    4.2460    0.2310   -1.8800 H   0  0  0  0  0
    3.4070   -1.6560    2.1550 H   0  0  0  0  0
  1 10  1  0  0  0
  1 27  1  0  0  0
  1 28  1  0  0  0
  2  1  1  0  0  0
  2 29  1  0  0  0
  2 30  1  0  0  0
  3  4  2  0  0  0
  3 31  1  0  0  0
  4  5  1  0  0  0
  4 32  1  0  0  0
  5 22  1  0  0  0
  6  5  2  0  0  0
  6 33  1  0  0  0
  7  6  1  0  0  0
  7 34  1  0  0  0
  8  7  2  0  0  0
  8  3  1  0  0  0
  9  8  1  0  0  0
 10  9  1  0  0  0
 10 35  1  0  0  0
 10 36  1  0  0  0
 11 23  1  0  0  0
 11 37  1  0  0  0
 11 38  1  0  0  0
 12 11  1  0  0  0
 12 39  1  0  0  0
 12 40  1  0  0  0
 13 25  1  0  0  0
 13 12  1  0  0  0
 14 13  1  0  0  0
 14 15  1  0  0  0
 14 41  1  0  0  0
 14 42  1  0  0  0
 15 23  1  0  0  0
 15 43  1  0  0  0
 15 44  1  0  0  0
 16 13  1  0  0  0
 17 16  2  0  0  0
 17 45  1  0  0  0
 18 17  1  0  0  0
 18 46  1  0  0  0
 19 18  2  0  0  0
 19 20  1  0  0  0
 20 21  2  0  0  0
 20 47  1  0  0  0
 21 16  1  0  0  0
 21 48  1  0  0  0
 23  2  1  0  0  0
 24  9  2  0  0  0
 25 49  1  0  0  0
 26 19  1  0  0  0
M  END
$$$$
