@<TRIPOS>MOLECULE
output.pdbqt
 27 29 0 0 0
SMALL
GASTEIGER

@<TRIPOS>ATOM
      1  C          9.7960    6.3720   -8.7970 C.3     1  UNL1        0.2760
      2  C         10.4630    6.4590   -7.4230 C.3     1  UNL1        0.0730
      3  C         10.4280    7.9100   -6.9350 C.3     1  UNL1        0.0880
      4  C         11.1310    8.8020   -7.9620 C.3     1  UNL1        0.0730
      5  C         10.4450    8.6470   -9.3200 C.3     1  UNL1        0.2760
      6  N         10.5050    7.2420   -9.7430 N.3     1  UNL1        0.0880
      7  C          9.9790    7.0790  -11.1050 C.3     1  UNL1        0.2720
      8  C         10.9520    7.7060  -12.1060 C.3     1  UNL1        0.0380
      9  C         11.9540    6.6490  -12.5740 C.3     1  UNL1        0.0850
     10  C         11.5580    6.1510  -13.9400 C.2     1  UNL1        0.1590
     11  O         11.8760    6.7770  -14.9290 O.2     1  UNL1       -0.2920
     12  C         10.7870    4.9070  -14.0740 C.2     1  UNL1        0.0100
     13  C         11.4480    3.6810  -14.2030 C.2     1  UNL1        0.0180
     14  C         10.7190    2.5180  -14.3280 C.2     1  UNL1        0.0430
     15  C          9.3330    2.5630  -14.3300 C.2     1  UNL1        0.1160
     16  F          8.6240    1.4190  -14.4520 F       1  UNL1       -0.2060
     17  C          8.6710    3.7750  -14.2060 C.2     1  UNL1        0.0430
     18  C          9.3880    4.9460  -14.0810 C.2     1  UNL1        0.0180
     19  O          9.0710    8.3320   -6.7860 O.3     1  UNL1       -0.3850
     20  H          8.7730    8.9460   -7.4700 H       1  UNL1        0.2110
     21  C         11.1360    8.0130   -5.6080 C.2     1  UNL1       -0.0240
     22  C         11.7520    9.1950   -5.2430 C.2     1  UNL1        0.0130
     23  C         12.4010    9.2900   -4.0270 C.2     1  UNL1        0.0430
     24  C         12.4350    8.2000   -3.1740 C.2     1  UNL1        0.1160
     25  C         11.8180    7.0170   -3.5400 C.2     1  UNL1        0.0430
     26  F         13.2500    8.3190   -1.6460 F       1  UNL1       -0.2060
     27  C         11.1640    6.9260   -4.7540 C.2     1  UNL1        0.0130
@<TRIPOS>BOND
     1    11    10    2
     2    16    15    1
     3    15    14    2
     4    15    17    1
     5    14    13    1
     6    17    18    2
     7    13    12    2
     8    18    12    1
     9    12    10    1
    10    10     9    1
    11     9     8    1
    12     8     7    1
    13     7     6    1
    14     6     5    1
    15     6     1    1
    16     5     4    1
    17     1     2    1
    18     4     3    1
    19    20    19    1
    20     2     3    1
    21     3    19    1
    22     3    21    1
    23    21    22    2
    24    21    27    1
    25    22    23    1
    26    27    25    2
    27    23    24    2
    28    25    24    1
    29    24    26    1
