@<TRIPOS>MOLECULE
output.pdbqt
 27 29 0 0 0
SMALL
GASTEIGER

@<TRIPOS>ATOM
      1  C         10.1380    6.6170   -8.6760 C.3     1  UNL1        0.2760
      2  C         10.7080    6.6020   -7.2570 C.3     1  UNL1        0.0730
      3  C         10.7210    8.0290   -6.7010 C.3     1  UNL1        0.0880
      4  C         11.5460    8.9220   -7.6320 C.3     1  UNL1        0.0730
      5  C         10.9520    8.8710   -9.0410 C.3     1  UNL1        0.2760
      6  N         10.9620    7.4850   -9.5270 N.3     1  UNL1        0.0880
      7  C         10.5270    7.4150  -10.9290 C.3     1  UNL1        0.2720
      8  C          9.4700    6.3190  -11.0810 C.3     1  UNL1        0.0380
      9  C          8.9730    6.2880  -12.5280 C.3     1  UNL1        0.0850
     10  C          7.4830    6.0560  -12.5410 C.2     1  UNL1        0.1590
     11  O          6.7250    6.9740  -12.3110 O.2     1  UNL1       -0.2920
     12  C          6.9510    4.7180  -12.8340 C.2     1  UNL1        0.0100
     13  C          7.7080    3.8080  -13.5820 C.2     1  UNL1        0.0180
     14  C          7.2040    2.5550  -13.8520 C.2     1  UNL1        0.0430
     15  C          5.9460    2.1960  -13.3890 C.2     1  UNL1        0.1160
     16  F          5.4580    0.9660  -13.6580 F       1  UNL1       -0.2060
     17  C          5.1890    3.0940  -12.6520 C.2     1  UNL1        0.0430
     18  C          5.6820    4.3510  -12.3740 C.2     1  UNL1        0.0180
     19  O          9.3830    8.5250   -6.6270 O.3     1  UNL1       -0.3850
     20  H          8.7680    8.0920   -7.2350 H       1  UNL1        0.2110
     21  C         11.3350    8.0280   -5.3250 C.2     1  UNL1       -0.0240
     22  C         11.2350    6.9060   -4.5250 C.2     1  UNL1        0.0130
     23  C         11.7980    6.9040   -3.2630 C.2     1  UNL1        0.0430
     24  C         12.4620    8.0270   -2.8010 C.2     1  UNL1        0.1160
     25  C         12.5620    9.1500   -3.6020 C.2     1  UNL1        0.0430
     26  F         13.1700    8.0250   -1.2150 F       1  UNL1       -0.2060
     27  C         12.0030    9.1470   -4.8660 C.2     1  UNL1        0.0130
@<TRIPOS>BOND
     1    14    13    1
     2    14    15    2
     3    16    15    1
     4    13    12    2
     5    15    17    1
     6    12    10    1
     7    12    18    1
     8    17    18    2
     9    10     9    1
    10    10    11    2
    11     9     8    1
    12     8     7    1
    13     7     6    1
    14     6     5    1
    15     6     1    1
    16     5     4    1
    17     1     2    1
    18     4     3    1
    19     2     3    1
    20    20    19    1
    21     3    19    1
    22     3    21    1
    23    21    27    2
    24    21    22    1
    25    27    25    1
    26    22    23    2
    27    25    24    2
    28    23    24    1
    29    24    26    1
