@<TRIPOS>MOLECULE
output.pdbqt
 27 29 0 0 0
SMALL
GASTEIGER

@<TRIPOS>ATOM
      1  C         10.1410    6.7550   -8.8130 C.3     1  UNL1        0.2760
      2  C         10.7460    6.6940   -7.4090 C.3     1  UNL1        0.0730
      3  C         10.6320    8.0710   -6.7480 C.3     1  UNL1        0.0880
      4  C         11.3410    9.1080   -7.6240 C.3     1  UNL1        0.0730
      5  C         10.7180    9.0990   -9.0210 C.3     1  UNL1        0.2760
      6  N         10.8530    7.7610   -9.6110 N.3     1  UNL1        0.0880
      7  C         10.3920    7.7500  -11.0050 C.3     1  UNL1        0.2720
      8  C         11.2840    6.8220  -11.8310 C.3     1  UNL1        0.0380
      9  C         10.6250    6.5530  -13.1860 C.3     1  UNL1        0.0850
     10  C         10.1260    5.1320  -13.2280 C.2     1  UNL1        0.1590
     11  O         10.9120    4.2160  -13.3490 O.2     1  UNL1       -0.2920
     12  C          8.6860    4.8550  -13.1230 C.2     1  UNL1        0.0100
     13  C          7.8260    5.8110  -12.5720 C.2     1  UNL1        0.0180
     14  C          6.4770    5.5460  -12.4770 C.2     1  UNL1        0.0430
     15  C          5.9730    4.3320  -12.9210 C.2     1  UNL1        0.1160
     16  F          4.6500    4.0790  -12.8250 F       1  UNL1       -0.2060
     17  C          6.8210    3.3790  -13.4650 C.2     1  UNL1        0.0430
     18  C          8.1720    3.6310  -13.5660 C.2     1  UNL1        0.0180
     19  O          9.2540    8.4230   -6.6120 O.3     1  UNL1       -0.3850
     20  H          8.7710    7.8840   -5.9720 H       1  UNL1        0.2110
     21  C         11.2780    8.0310   -5.3880 C.2     1  UNL1       -0.0240
     22  C         11.1870    6.8910   -4.6120 C.2     1  UNL1        0.0130
     23  C         11.7800    6.8530   -3.3640 C.2     1  UNL1        0.0430
     24  C         12.4640    7.9590   -2.8910 C.2     1  UNL1        0.1160
     25  C         12.5550    9.1010   -3.6670 C.2     1  UNL1        0.0430
     26  F         13.2080    7.9140   -1.3230 F       1  UNL1       -0.2060
     27  C         11.9660    9.1340   -4.9170 C.2     1  UNL1        0.0130
@<TRIPOS>BOND
     1    18    17    1
     2    18    12    2
     3    17    15    2
     4    11    10    2
     5    10     9    1
     6    10    12    1
     7     9     8    1
     8    12    13    1
     9    15    16    1
    10    15    14    1
    11    13    14    2
    12     8     7    1
    13     7     6    1
    14     6     5    1
    15     6     1    1
    16     5     4    1
    17     1     2    1
    18     4     3    1
    19     2     3    1
    20     3    19    1
    21     3    21    1
    22    19    20    1
    23    21    27    2
    24    21    22    1
    25    27    25    1
    26    22    23    2
    27    25    24    2
    28    23    24    1
    29    24    26    1
