@<TRIPOS>MOLECULE
output.pdbqt
 27 29 0 0 0
SMALL
GASTEIGER

@<TRIPOS>ATOM
      1  C         10.1130    6.6540   -8.8500 C.3     1  UNL1        0.2760
      2  C         10.6670    6.6350   -7.4250 C.3     1  UNL1        0.0730
      3  C         10.6100    8.0490   -6.8410 C.3     1  UNL1        0.0880
      4  C         11.4060    8.9970   -7.7430 C.3     1  UNL1        0.0730
      5  C         10.8310    8.9470   -9.1600 C.3     1  UNL1        0.2760
      6  N         10.9080    7.5740   -9.6730 N.3     1  UNL1        0.0880
      7  C         10.4930    7.5130  -11.0810 C.3     1  UNL1        0.2720
      8  C          9.4380    6.4190  -11.2560 C.3     1  UNL1        0.0380
      9  C          9.5140    5.8590  -12.6780 C.3     1  UNL1        0.0850
     10  C          8.6310    4.6420  -12.7860 C.2     1  UNL1        0.1590
     11  O          7.5490    4.6280  -12.2400 O.2     1  UNL1       -0.2920
     12  C          9.0820    3.4730  -13.5550 C.2     1  UNL1        0.0100
     13  C         10.4290    3.3440  -13.9120 C.2     1  UNL1        0.0180
     14  C         10.8450    2.2460  -14.6320 C.2     1  UNL1        0.0430
     15  C          9.9310    1.2720  -15.0080 C.2     1  UNL1        0.1160
     16  F         10.3460    0.1980  -15.7140 F       1  UNL1       -0.2060
     17  C          8.5940    1.3970  -14.6610 C.2     1  UNL1        0.0430
     18  C          8.1640    2.4900  -13.9410 C.2     1  UNL1        0.0180
     19  O          9.2510    8.4840   -6.7730 O.3     1  UNL1       -0.3850
     20  H          8.8360    8.6140   -7.6360 H       1  UNL1        0.2110
     21  C         11.2090    8.0480   -5.4580 C.2     1  UNL1       -0.0240
     22  C         11.8030    9.1920   -4.9610 C.2     1  UNL1        0.0130
     23  C         12.3520    9.1930   -3.6930 C.2     1  UNL1        0.0430
     24  C         12.3070    8.0450   -2.9200 C.2     1  UNL1        0.1160
     25  C         11.7120    6.8990   -3.4170 C.2     1  UNL1        0.0430
     26  F         12.9960    8.0440   -1.3270 F       1  UNL1       -0.2060
     27  C         11.1580    6.9030   -4.6840 C.2     1  UNL1        0.0130
@<TRIPOS>BOND
     1    16    15    1
     2    15    17    2
     3    15    14    1
     4    17    18    1
     5    14    13    2
     6    18    12    2
     7    13    12    1
     8    12    10    1
     9    10     9    1
    10    10    11    2
    11     9     8    1
    12     8     7    1
    13     7     6    1
    14     6     5    1
    15     6     1    1
    16     5     4    1
    17     1     2    1
    18     4     3    1
    19    20    19    1
    20     2     3    1
    21     3    19    1
    22     3    21    1
    23    21    22    2
    24    21    27    1
    25    22    23    1
    26    27    25    2
    27    23    24    2
    28    25    24    1
    29    24    26    1
