@<TRIPOS>MOLECULE
output.pdbqt
 27 29 0 0 0
SMALL
GASTEIGER

@<TRIPOS>ATOM
      1  C         10.5340    6.7500   -8.6160 C.3     1  UNL1        0.2760
      2  C         11.0010    6.6970   -7.1600 C.3     1  UNL1        0.0730
      3  C         10.9290    8.1020   -6.5550 C.3     1  UNL1        0.0880
      4  C         11.7900    9.0530   -7.3900 C.3     1  UNL1        0.0730
      5  C         11.3000    9.0380   -8.8390 C.3     1  UNL1        0.2760
      6  N         11.3890    7.6730   -9.3730 N.3     1  UNL1        0.0880
      7  C         11.0580    7.6440  -10.8040 C.3     1  UNL1        0.2720
      8  C          9.5440    7.7760  -10.9800 C.3     1  UNL1        0.0380
      9  C          9.1170    7.0710  -12.2690 C.3     1  UNL1        0.0850
     10  C          9.2860    5.5820  -12.1070 C.2     1  UNL1        0.1590
     11  O          8.8220    5.0220  -11.1370 O.2     1  UNL1       -0.2920
     12  C         10.0140    4.8100  -13.1240 C.2     1  UNL1        0.0100
     13  C          9.6270    3.4980  -13.4200 C.2     1  UNL1        0.0180
     14  C         10.3130    2.7800  -14.3750 C.2     1  UNL1        0.0430
     15  C         11.3880    3.3540  -15.0390 C.2     1  UNL1        0.1160
     16  F         12.0560    2.6440  -15.9740 F       1  UNL1       -0.2060
     17  C         11.7790    4.6520  -14.7470 C.2     1  UNL1        0.0430
     18  C         11.1010    5.3810  -13.7940 C.2     1  UNL1        0.0180
     19  O          9.5740    8.5550   -6.5600 O.3     1  UNL1       -0.3850
     20  H          9.2740    8.8880   -7.4160 H       1  UNL1        0.2110
     21  C         11.4430    8.0660   -5.1390 C.2     1  UNL1       -0.0240
     22  C         11.3390    6.9060   -4.3950 C.2     1  UNL1        0.0130
     23  C         11.8100    6.8730   -3.0960 C.2     1  UNL1        0.0430
     24  C         12.3850    8.0020   -2.5400 C.2     1  UNL1        0.1160
     25  C         12.4890    9.1630   -3.2850 C.2     1  UNL1        0.0430
     26  F         12.9770    7.9610   -0.9090 F       1  UNL1       -0.2060
     27  C         12.0230    9.1930   -4.5860 C.2     1  UNL1        0.0130
@<TRIPOS>BOND
     1    16    15    1
     2    15    17    2
     3    15    14    1
     4    17    18    1
     5    14    13    2
     6    18    12    2
     7    13    12    1
     8    12    10    1
     9     9    10    1
    10     9     8    1
    11    10    11    2
    12     8     7    1
    13     7     6    1
    14     6     5    1
    15     6     1    1
    16     5     4    1
    17     1     2    1
    18    20    19    1
    19     4     3    1
    20     2     3    1
    21    19     3    1
    22     3    21    1
    23    21    27    2
    24    21    22    1
    25    27    25    1
    26    22    23    2
    27    25    24    2
    28    23    24    1
    29    24    26    1
