MODEL 1
REMARK VINA RESULT:     -11.1      0.000      0.000
REMARK  7 active torsions:
REMARK  status: ('A' for Active; 'I' for Inactive)
REMARK    1  A    between atoms: C_1  and  C_10 
REMARK    2  A    between atoms: C_1  and  C_2 
REMARK    3  A    between atoms: C_2  and  N_23 
REMARK    4  A    between atoms: C_8  and  C_9 
REMARK    5  A    between atoms: C_9  and  C_10 
REMARK    6  A    between atoms: C_13  and  O_25 
REMARK    7  A    between atoms: C_13  and  C_16 
ROOT
HETATM    1  C   UNL     1      10.138   6.617  -8.676  1.00  0.00     0.276 C 
HETATM    2  C   UNL     1      10.708   6.602  -7.257  1.00  0.00     0.073 C 
HETATM    3  C   UNL     1      10.721   8.029  -6.701  1.00  0.00     0.088 C 
HETATM    4  C   UNL     1      11.546   8.922  -7.632  1.00  0.00     0.073 C 
HETATM    5  C   UNL     1      10.952   8.871  -9.041  1.00  0.00     0.276 C 
HETATM    6  N   UNL     1      10.962   7.485  -9.527  1.00  0.00     0.088 N 
ENDROOT
BRANCH   6   7
HETATM    7  C   UNL     1      10.527   7.415 -10.929  1.00  0.00     0.272 C 
BRANCH   7   8
HETATM    8  C   UNL     1       9.470   6.319 -11.081  1.00  0.00     0.038 C 
BRANCH   8   9
HETATM    9  C   UNL     1       8.973   6.288 -12.528  1.00  0.00     0.085 C 
BRANCH   9  10
HETATM   10  C   UNL     1       7.483   6.056 -12.541  1.00  0.00     0.159 C 
HETATM   11  O   UNL     1       6.725   6.974 -12.311  1.00  0.00    -0.292 OA
BRANCH  10  12
HETATM   12  C   UNL     1       6.951   4.718 -12.834  1.00  0.00     0.010 A 
HETATM   13  C   UNL     1       7.708   3.808 -13.582  1.00  0.00     0.018 A 
HETATM   14  C   UNL     1       7.204   2.555 -13.852  1.00  0.00     0.043 A 
HETATM   15  C   UNL     1       5.946   2.196 -13.389  1.00  0.00     0.116 A 
HETATM   16  F   UNL     1       5.458   0.966 -13.658  1.00  0.00    -0.206 F 
HETATM   17  C   UNL     1       5.189   3.094 -12.652  1.00  0.00     0.043 A 
HETATM   18  C   UNL     1       5.682   4.351 -12.374  1.00  0.00     0.018 A 
ENDBRANCH  10  12
ENDBRANCH   9  10
ENDBRANCH   8   9
ENDBRANCH   7   8
ENDBRANCH   6   7
BRANCH   3  19
HETATM   19  O   UNL     1       9.383   8.525  -6.627  1.00  0.00    -0.385 OA
HETATM   20  H   UNL     1       8.768   8.092  -7.235  1.00  0.00     0.211 HD
ENDBRANCH   3  19
BRANCH   3  21
HETATM   21  C   UNL     1      11.335   8.028  -5.325  1.00  0.00    -0.024 A 
HETATM   22  C   UNL     1      11.235   6.906  -4.525  1.00  0.00     0.013 A 
HETATM   23  C   UNL     1      11.798   6.904  -3.263  1.00  0.00     0.043 A 
HETATM   24  C   UNL     1      12.462   8.027  -2.801  1.00  0.00     0.116 A 
HETATM   25  C   UNL     1      12.562   9.150  -3.602  1.00  0.00     0.043 A 
HETATM   26  F   UNL     1      13.170   8.025  -1.215  1.00  0.00    -0.206 F 
HETATM   27  C   UNL     1      12.003   9.147  -4.866  1.00  0.00     0.013 A 
ENDBRANCH   3  21
TORSDOF 7
ENDMDL
MODEL 2
REMARK VINA RESULT:     -10.6      1.402      1.854
REMARK  7 active torsions:
REMARK  status: ('A' for Active; 'I' for Inactive)
REMARK    1  A    between atoms: C_1  and  C_10 
REMARK    2  A    between atoms: C_1  and  C_2 
REMARK    3  A    between atoms: C_2  and  N_23 
REMARK    4  A    between atoms: C_8  and  C_9 
REMARK    5  A    between atoms: C_9  and  C_10 
REMARK    6  A    between atoms: C_13  and  O_25 
REMARK    7  A    between atoms: C_13  and  C_16 
ROOT
HETATM    1  C   UNL     1      10.141   6.755  -8.813  1.00  0.00     0.276 C 
HETATM    2  C   UNL     1      10.746   6.694  -7.409  1.00  0.00     0.073 C 
HETATM    3  C   UNL     1      10.632   8.071  -6.748  1.00  0.00     0.088 C 
HETATM    4  C   UNL     1      11.341   9.108  -7.624  1.00  0.00     0.073 C 
HETATM    5  C   UNL     1      10.718   9.099  -9.021  1.00  0.00     0.276 C 
HETATM    6  N   UNL     1      10.853   7.761  -9.611  1.00  0.00     0.088 N 
ENDROOT
BRANCH   6   7
HETATM    7  C   UNL     1      10.392   7.750 -11.005  1.00  0.00     0.272 C 
BRANCH   7   8
HETATM    8  C   UNL     1      11.284   6.822 -11.831  1.00  0.00     0.038 C 
BRANCH   8   9
HETATM    9  C   UNL     1      10.625   6.553 -13.186  1.00  0.00     0.085 C 
BRANCH   9  10
HETATM   10  C   UNL     1      10.126   5.132 -13.228  1.00  0.00     0.159 C 
HETATM   11  O   UNL     1      10.912   4.216 -13.349  1.00  0.00    -0.292 OA
BRANCH  10  12
HETATM   12  C   UNL     1       8.686   4.855 -13.123  1.00  0.00     0.010 A 
HETATM   13  C   UNL     1       7.826   5.811 -12.572  1.00  0.00     0.018 A 
HETATM   14  C   UNL     1       6.477   5.546 -12.477  1.00  0.00     0.043 A 
HETATM   15  C   UNL     1       5.973   4.332 -12.921  1.00  0.00     0.116 A 
HETATM   16  F   UNL     1       4.650   4.079 -12.825  1.00  0.00    -0.206 F 
HETATM   17  C   UNL     1       6.821   3.379 -13.465  1.00  0.00     0.043 A 
HETATM   18  C   UNL     1       8.172   3.631 -13.566  1.00  0.00     0.018 A 
ENDBRANCH  10  12
ENDBRANCH   9  10
ENDBRANCH   8   9
ENDBRANCH   7   8
ENDBRANCH   6   7
BRANCH   3  19
HETATM   19  O   UNL     1       9.254   8.423  -6.612  1.00  0.00    -0.385 OA
HETATM   20  H   UNL     1       8.771   7.884  -5.972  1.00  0.00     0.211 HD
ENDBRANCH   3  19
BRANCH   3  21
HETATM   21  C   UNL     1      11.278   8.031  -5.388  1.00  0.00    -0.024 A 
HETATM   22  C   UNL     1      11.187   6.891  -4.612  1.00  0.00     0.013 A 
HETATM   23  C   UNL     1      11.780   6.853  -3.364  1.00  0.00     0.043 A 
HETATM   24  C   UNL     1      12.464   7.959  -2.891  1.00  0.00     0.116 A 
HETATM   25  C   UNL     1      12.555   9.101  -3.667  1.00  0.00     0.043 A 
HETATM   26  F   UNL     1      13.208   7.914  -1.323  1.00  0.00    -0.206 F 
HETATM   27  C   UNL     1      11.966   9.134  -4.917  1.00  0.00     0.013 A 
ENDBRANCH   3  21
TORSDOF 7
ENDMDL
MODEL 3
REMARK VINA RESULT:     -10.3      1.716      2.325
REMARK  7 active torsions:
REMARK  status: ('A' for Active; 'I' for Inactive)
REMARK    1  A    between atoms: C_1  and  C_10 
REMARK    2  A    between atoms: C_1  and  C_2 
REMARK    3  A    between atoms: C_2  and  N_23 
REMARK    4  A    between atoms: C_8  and  C_9 
REMARK    5  A    between atoms: C_9  and  C_10 
REMARK    6  A    between atoms: C_13  and  O_25 
REMARK    7  A    between atoms: C_13  and  C_16 
ROOT
HETATM    1  C   UNL     1      10.113   6.654  -8.850  1.00  0.00     0.276 C 
HETATM    2  C   UNL     1      10.667   6.635  -7.425  1.00  0.00     0.073 C 
HETATM    3  C   UNL     1      10.610   8.049  -6.841  1.00  0.00     0.088 C 
HETATM    4  C   UNL     1      11.406   8.997  -7.743  1.00  0.00     0.073 C 
HETATM    5  C   UNL     1      10.831   8.947  -9.160  1.00  0.00     0.276 C 
HETATM    6  N   UNL     1      10.908   7.574  -9.673  1.00  0.00     0.088 N 
ENDROOT
BRANCH   6   7
HETATM    7  C   UNL     1      10.493   7.513 -11.081  1.00  0.00     0.272 C 
BRANCH   7   8
HETATM    8  C   UNL     1       9.438   6.419 -11.256  1.00  0.00     0.038 C 
BRANCH   8   9
HETATM    9  C   UNL     1       9.514   5.859 -12.678  1.00  0.00     0.085 C 
BRANCH   9  10
HETATM   10  C   UNL     1       8.631   4.642 -12.786  1.00  0.00     0.159 C 
HETATM   11  O   UNL     1       7.549   4.628 -12.240  1.00  0.00    -0.292 OA
BRANCH  10  12
HETATM   12  C   UNL     1       9.082   3.473 -13.555  1.00  0.00     0.010 A 
HETATM   13  C   UNL     1      10.429   3.344 -13.912  1.00  0.00     0.018 A 
HETATM   14  C   UNL     1      10.845   2.246 -14.632  1.00  0.00     0.043 A 
HETATM   15  C   UNL     1       9.931   1.272 -15.008  1.00  0.00     0.116 A 
HETATM   16  F   UNL     1      10.346   0.198 -15.714  1.00  0.00    -0.206 F 
HETATM   17  C   UNL     1       8.594   1.397 -14.661  1.00  0.00     0.043 A 
HETATM   18  C   UNL     1       8.164   2.490 -13.941  1.00  0.00     0.018 A 
ENDBRANCH  10  12
ENDBRANCH   9  10
ENDBRANCH   8   9
ENDBRANCH   7   8
ENDBRANCH   6   7
BRANCH   3  19
HETATM   19  O   UNL     1       9.251   8.484  -6.773  1.00  0.00    -0.385 OA
HETATM   20  H   UNL     1       8.836   8.614  -7.636  1.00  0.00     0.211 HD
ENDBRANCH   3  19
BRANCH   3  21
HETATM   21  C   UNL     1      11.209   8.048  -5.458  1.00  0.00    -0.024 A 
HETATM   22  C   UNL     1      11.803   9.192  -4.961  1.00  0.00     0.013 A 
HETATM   23  C   UNL     1      12.352   9.193  -3.693  1.00  0.00     0.043 A 
HETATM   24  C   UNL     1      12.307   8.045  -2.920  1.00  0.00     0.116 A 
HETATM   25  C   UNL     1      11.712   6.899  -3.417  1.00  0.00     0.043 A 
HETATM   26  F   UNL     1      12.996   8.044  -1.327  1.00  0.00    -0.206 F 
HETATM   27  C   UNL     1      11.158   6.903  -4.684  1.00  0.00     0.013 A 
ENDBRANCH   3  21
TORSDOF 7
ENDMDL
MODEL 4
REMARK VINA RESULT:     -10.3      2.294      2.837
REMARK  7 active torsions:
REMARK  status: ('A' for Active; 'I' for Inactive)
REMARK    1  A    between atoms: C_1  and  C_10 
REMARK    2  A    between atoms: C_1  and  C_2 
REMARK    3  A    between atoms: C_2  and  N_23 
REMARK    4  A    between atoms: C_8  and  C_9 
REMARK    5  A    between atoms: C_9  and  C_10 
REMARK    6  A    between atoms: C_13  and  O_25 
REMARK    7  A    between atoms: C_13  and  C_16 
ROOT
HETATM    1  C   UNL     1      10.534   6.750  -8.616  1.00  0.00     0.276 C 
HETATM    2  C   UNL     1      11.001   6.697  -7.160  1.00  0.00     0.073 C 
HETATM    3  C   UNL     1      10.929   8.102  -6.555  1.00  0.00     0.088 C 
HETATM    4  C   UNL     1      11.790   9.053  -7.390  1.00  0.00     0.073 C 
HETATM    5  C   UNL     1      11.300   9.038  -8.839  1.00  0.00     0.276 C 
HETATM    6  N   UNL     1      11.389   7.673  -9.373  1.00  0.00     0.088 N 
ENDROOT
BRANCH   6   7
HETATM    7  C   UNL     1      11.058   7.644 -10.804  1.00  0.00     0.272 C 
BRANCH   7   8
HETATM    8  C   UNL     1       9.544   7.776 -10.980  1.00  0.00     0.038 C 
BRANCH   8   9
HETATM    9  C   UNL     1       9.117   7.071 -12.269  1.00  0.00     0.085 C 
BRANCH   9  10
HETATM   10  C   UNL     1       9.286   5.582 -12.107  1.00  0.00     0.159 C 
HETATM   11  O   UNL     1       8.822   5.022 -11.137  1.00  0.00    -0.292 OA
BRANCH  10  12
HETATM   12  C   UNL     1      10.014   4.810 -13.124  1.00  0.00     0.010 A 
HETATM   13  C   UNL     1       9.627   3.498 -13.420  1.00  0.00     0.018 A 
HETATM   14  C   UNL     1      10.313   2.780 -14.375  1.00  0.00     0.043 A 
HETATM   15  C   UNL     1      11.388   3.354 -15.039  1.00  0.00     0.116 A 
HETATM   16  F   UNL     1      12.056   2.644 -15.974  1.00  0.00    -0.206 F 
HETATM   17  C   UNL     1      11.779   4.652 -14.747  1.00  0.00     0.043 A 
HETATM   18  C   UNL     1      11.101   5.381 -13.794  1.00  0.00     0.018 A 
ENDBRANCH  10  12
ENDBRANCH   9  10
ENDBRANCH   8   9
ENDBRANCH   7   8
ENDBRANCH   6   7
BRANCH   3  19
HETATM   19  O   UNL     1       9.574   8.555  -6.560  1.00  0.00    -0.385 OA
HETATM   20  H   UNL     1       9.274   8.888  -7.416  1.00  0.00     0.211 HD
ENDBRANCH   3  19
BRANCH   3  21
HETATM   21  C   UNL     1      11.443   8.066  -5.139  1.00  0.00    -0.024 A 
HETATM   22  C   UNL     1      11.339   6.906  -4.395  1.00  0.00     0.013 A 
HETATM   23  C   UNL     1      11.810   6.873  -3.096  1.00  0.00     0.043 A 
HETATM   24  C   UNL     1      12.385   8.002  -2.540  1.00  0.00     0.116 A 
HETATM   25  C   UNL     1      12.489   9.163  -3.285  1.00  0.00     0.043 A 
HETATM   26  F   UNL     1      12.977   7.961  -0.909  1.00  0.00    -0.206 F 
HETATM   27  C   UNL     1      12.023   9.193  -4.586  1.00  0.00     0.013 A 
ENDBRANCH   3  21
TORSDOF 7
ENDMDL
MODEL 5
REMARK VINA RESULT:     -10.0      2.040      2.709
REMARK  7 active torsions:
REMARK  status: ('A' for Active; 'I' for Inactive)
REMARK    1  A    between atoms: C_1  and  C_10 
REMARK    2  A    between atoms: C_1  and  C_2 
REMARK    3  A    between atoms: C_2  and  N_23 
REMARK    4  A    between atoms: C_8  and  C_9 
REMARK    5  A    between atoms: C_9  and  C_10 
REMARK    6  A    between atoms: C_13  and  O_25 
REMARK    7  A    between atoms: C_13  and  C_16 
ROOT
HETATM    1  C   UNL     1       9.796   6.372  -8.797  1.00  0.00     0.276 C 
HETATM    2  C   UNL     1      10.463   6.459  -7.423  1.00  0.00     0.073 C 
HETATM    3  C   UNL     1      10.428   7.910  -6.935  1.00  0.00     0.088 C 
HETATM    4  C   UNL     1      11.131   8.802  -7.962  1.00  0.00     0.073 C 
HETATM    5  C   UNL     1      10.445   8.647  -9.320  1.00  0.00     0.276 C 
HETATM    6  N   UNL     1      10.505   7.242  -9.743  1.00  0.00     0.088 N 
ENDROOT
BRANCH   6   7
HETATM    7  C   UNL     1       9.979   7.079 -11.105  1.00  0.00     0.272 C 
BRANCH   7   8
HETATM    8  C   UNL     1      10.952   7.706 -12.106  1.00  0.00     0.038 C 
BRANCH   8   9
HETATM    9  C   UNL     1      11.954   6.649 -12.574  1.00  0.00     0.085 C 
BRANCH   9  10
HETATM   10  C   UNL     1      11.558   6.151 -13.940  1.00  0.00     0.159 C 
HETATM   11  O   UNL     1      11.876   6.777 -14.929  1.00  0.00    -0.292 OA
BRANCH  10  12
HETATM   12  C   UNL     1      10.787   4.907 -14.074  1.00  0.00     0.010 A 
HETATM   13  C   UNL     1      11.448   3.681 -14.203  1.00  0.00     0.018 A 
HETATM   14  C   UNL     1      10.719   2.518 -14.328  1.00  0.00     0.043 A 
HETATM   15  C   UNL     1       9.333   2.563 -14.330  1.00  0.00     0.116 A 
HETATM   16  F   UNL     1       8.624   1.419 -14.452  1.00  0.00    -0.206 F 
HETATM   17  C   UNL     1       8.671   3.775 -14.206  1.00  0.00     0.043 A 
HETATM   18  C   UNL     1       9.388   4.946 -14.081  1.00  0.00     0.018 A 
ENDBRANCH  10  12
ENDBRANCH   9  10
ENDBRANCH   8   9
ENDBRANCH   7   8
ENDBRANCH   6   7
BRANCH   3  19
HETATM   19  O   UNL     1       9.071   8.332  -6.786  1.00  0.00    -0.385 OA
HETATM   20  H   UNL     1       8.773   8.946  -7.470  1.00  0.00     0.211 HD
ENDBRANCH   3  19
BRANCH   3  21
HETATM   21  C   UNL     1      11.136   8.013  -5.608  1.00  0.00    -0.024 A 
HETATM   22  C   UNL     1      11.752   9.195  -5.243  1.00  0.00     0.013 A 
HETATM   23  C   UNL     1      12.401   9.290  -4.027  1.00  0.00     0.043 A 
HETATM   24  C   UNL     1      12.435   8.200  -3.174  1.00  0.00     0.116 A 
HETATM   25  C   UNL     1      11.818   7.017  -3.540  1.00  0.00     0.043 A 
HETATM   26  F   UNL     1      13.250   8.319  -1.646  1.00  0.00    -0.206 F 
HETATM   27  C   UNL     1      11.164   6.926  -4.754  1.00  0.00     0.013 A 
ENDBRANCH   3  21
TORSDOF 7
ENDMDL
